192
MolekÃ¼ldynamik_3D
O 0.000000 0.000000 0.000000
O 0.000000 4.726050 0.000000
O 0.000000 9.452100 0.000000
O 0.000000 14.178150 0.000000
O 4.726050 0.000000 0.000000
O 4.726050 4.726050 0.000000
O 4.726050 9.452100 0.000000
O 4.726050 14.178150 0.000000
O 9.452100 0.000000 0.000000
O 9.452100 4.726050 0.000000
O 9.452100 9.452100 0.000000
O 9.452100 14.178150 0.000000
O 14.178150 0.000000 0.000000
O 14.178150 4.726050 0.000000
O 14.178150 9.452100 0.000000
O 14.178150 14.178150 0.000000
O 0.000000 0.000000 4.726050
O 0.000000 4.726050 4.726050
O 0.000000 9.452100 4.726050
O 0.000000 14.178150 4.726050
O 4.726050 0.000000 4.726050
O 4.726050 4.726050 4.726050
O 4.726050 9.452100 4.726050
O 4.726050 14.178150 4.726050
O 9.452100 0.000000 4.726050
O 9.452100 4.726050 4.726050
O 9.452100 9.452100 4.726050
O 9.452100 14.178150 4.726050
O 14.178150 0.000000 4.726050
O 14.178150 4.726050 4.726050
O 14.178150 9.452100 4.726050
O 14.178150 14.178150 4.726050
O 0.000000 0.000000 9.452100
O 0.000000 4.726050 9.452100
O 0.000000 9.452100 9.452100
O 0.000000 14.178150 9.452100
O 4.726050 0.000000 9.452100
O 4.726050 4.726050 9.452100
O 4.726050 9.452100 9.452100
O 4.726050 14.178150 9.452100
O 9.452100 0.000000 9.452100
O 9.452100 4.726050 9.452100
O 9.452100 9.452100 9.452100
O 9.452100 14.178150 9.452100
O 14.178150 0.000000 9.452100
O 14.178150 4.726050 9.452100
O 14.178150 9.452100 9.452100
O 14.178150 14.178150 9.452100
O 0.000000 0.000000 14.178150
O 0.000000 4.726050 14.178150
O 0.000000 9.452100 14.178150
O 0.000000 14.178150 14.178150
O 4.726050 0.000000 14.178150
O 4.726050 4.726050 14.178150
O 4.726050 9.452100 14.178150
O 4.726050 14.178150 14.178150
O 9.452100 0.000000 14.178150
O 9.452100 4.726050 14.178150
O 9.452100 9.452100 14.178150
O 9.452100 14.178150 14.178150
O 14.178150 0.000000 14.178150
O 14.178150 4.726050 14.178150
O 14.178150 9.452100 14.178150
O 14.178150 14.178150 14.178150
H -0.957200 0.000000 0.000000
H -0.957200 4.726050 0.000000
H -0.957200 9.452100 0.000000
H -0.957200 14.178150 0.000000
H 3.768850 0.000000 0.000000
H 3.768850 4.726050 0.000000
H 3.768850 9.452100 0.000000
H 3.768850 14.178150 0.000000
H 8.494900 0.000000 0.000000
H 8.494900 4.726050 0.000000
H 8.494900 9.452100 0.000000
H 8.494900 14.178150 0.000000
H 13.220950 0.000000 0.000000
H 13.220950 4.726050 0.000000
H 13.220950 9.452100 0.000000
H 13.220950 14.178150 0.000000
H -0.957200 0.000000 4.726050
H -0.957200 4.726050 4.726050
H -0.957200 9.452100 4.726050
H -0.957200 14.178150 4.726050
H 3.768850 0.000000 4.726050
H 3.768850 4.726050 4.726050
H 3.768850 9.452100 4.726050
H 3.768850 14.178150 4.726050
H 8.494900 0.000000 4.726050
H 8.494900 4.726050 4.726050
H 8.494900 9.452100 4.726050
H 8.494900 14.178150 4.726050
H 13.220950 0.000000 4.726050
H 13.220950 4.726050 4.726050
H 13.220950 9.452100 4.726050
H 13.220950 14.178150 4.726050
H -0.957200 0.000000 9.452100
H -0.957200 4.726050 9.452100
H -0.957200 9.452100 9.452100
H -0.957200 14.178150 9.452100
H 3.768850 0.000000 9.452100
H 3.768850 4.726050 9.452100
H 3.768850 9.452100 9.452100
H 3.768850 14.178150 9.452100
H 8.494900 0.000000 9.452100
H 8.494900 4.726050 9.452100
H 8.494900 9.452100 9.452100
H 8.494900 14.178150 9.452100
H 13.220950 0.000000 9.452100
H 13.220950 4.726050 9.452100
H 13.220950 9.452100 9.452100
H 13.220950 14.178150 9.452100
H -0.957200 0.000000 14.178150
H -0.957200 4.726050 14.178150
H -0.957200 9.452100 14.178150
H -0.957200 14.178150 14.178150
H 3.768850 0.000000 14.178150
H 3.768850 4.726050 14.178150
H 3.768850 9.452100 14.178150
H 3.768850 14.178150 14.178150
H 8.494900 0.000000 14.178150
H 8.494900 4.726050 14.178150
H 8.494900 9.452100 14.178150
H 8.494900 14.178150 14.178150
H 13.220950 0.000000 14.178150
H 13.220950 4.726050 14.178150
H 13.220950 9.452100 14.178150
H 13.220950 14.178150 14.178150
H 0.357562 0.887908 0.000000
H 0.357562 5.613958 0.000000
H 0.357562 10.340008 0.000000
H 0.357562 15.066058 0.000000
H 5.083612 0.887908 0.000000
H 5.083612 5.613958 0.000000
H 5.083612 10.340008 0.000000
H 5.083612 15.066058 0.000000
H 9.809662 0.887908 0.000000
H 9.809662 5.613958 0.000000
H 9.809662 10.340008 0.000000
H 9.809662 15.066058 0.000000
H 14.535712 0.887908 0.000000
H 14.535712 5.613958 0.000000
H 14.535712 10.340008 0.000000
H 14.535712 15.066058 0.000000
H 0.357562 0.887908 4.726050
H 0.357562 5.613958 4.726050
H 0.357562 10.340008 4.726050
H 0.357562 15.066058 4.726050
H 5.083612 0.887908 4.726050
H 5.083612 5.613958 4.726050
H 5.083612 10.340008 4.726050
H 5.083612 15.066058 4.726050
H 9.809662 0.887908 4.726050
H 9.809662 5.613958 4.726050
H 9.809662 10.340008 4.726050
H 9.809662 15.066058 4.726050
H 14.535712 0.887908 4.726050
H 14.535712 5.613958 4.726050
H 14.535712 10.340008 4.726050
H 14.535712 15.066058 4.726050
H 0.357562 0.887908 9.452100
H 0.357562 5.613958 9.452100
H 0.357562 10.340008 9.452100
H 0.357562 15.066058 9.452100
H 5.083612 0.887908 9.452100
H 5.083612 5.613958 9.452100
H 5.083612 10.340008 9.452100
H 5.083612 15.066058 9.452100
H 9.809662 0.887908 9.452100
H 9.809662 5.613958 9.452100
H 9.809662 10.340008 9.452100
H 9.809662 15.066058 9.452100
H 14.535712 0.887908 9.452100
H 14.535712 5.613958 9.452100
H 14.535712 10.340008 9.452100
H 14.535712 15.066058 9.452100
H 0.357562 0.887908 14.178150
H 0.357562 5.613958 14.178150
H 0.357562 10.340008 14.178150
H 0.357562 15.066058 14.178150
H 5.083612 0.887908 14.178150
H 5.083612 5.613958 14.178150
H 5.083612 10.340008 14.178150
H 5.083612 15.066058 14.178150
H 9.809662 0.887908 14.178150
H 9.809662 5.613958 14.178150
H 9.809662 10.340008 14.178150
H 9.809662 15.066058 14.178150
H 14.535712 0.887908 14.178150
H 14.535712 5.613958 14.178150
H 14.535712 10.340008 14.178150
H 14.535712 15.066058 14.178150
