30
MolekÃ¼ldynamik_3D
O -10.796933 -3.226888 2.565575
O -8.282662 -10.370632 -11.984499
O 3.198594 8.291419 -2.489678
O 11.223110 13.368985 0.910742
O -4.423437 5.050716 13.816633
O 11.403478 -2.856433 14.148143
O 12.397426 13.571542 -11.913379
O 14.882926 4.597903 -1.304720
O 15.662031 8.858716 -8.797487
O 11.050807 -1.837140 4.553899
H -10.439371 -2.338979 2.565575
H -7.925100 -9.482723 -11.984499
H 3.556156 9.179327 -2.489678
H 11.580672 14.256893 0.910742
H -4.065875 5.938625 13.816633
H 11.761040 -1.968524 14.148143
H 12.754988 14.459450 -11.913379
H 15.240488 5.485811 -1.304720
H 16.019593 9.746624 -8.797487
H 11.408369 -0.949232 4.553899
H -11.754133 -3.226888 2.565575
H -9.239862 -10.370632 -11.984499
H 2.241394 8.291419 -2.489678
H 10.265910 13.368985 0.910742
H -5.380637 5.050716 13.816633
H 10.446278 -2.856433 14.148143
H 11.440226 13.571542 -11.913379
H 13.925726 4.597903 -1.304720
H 14.704831 8.858716 -8.797487
H 10.093607 -1.837140 4.553899
