300
MolekÃ¼ldynamik_3D
O -117.541330 137.310269 117.073393
O 131.379539 63.187868 104.374503
O 22.413941 120.945920 -13.773497
O 102.659099 140.960095 75.282075
O -53.806371 14.048301 -5.823270
O 104.462782 143.880587 2.381572
O 114.402265 102.968976 -130.133329
O -26.057515 71.428924 -25.613429
O 147.048310 -77.788314 149.350052
O -18.863983 7.312339 -84.090732
O -41.840878 -71.475684 -120.987799
O -45.342762 -14.719029 15.359310
O 73.342188 -94.019391 85.910039
O 124.117847 124.042090 -100.829870
O 40.935162 62.843306 5.743510
O -38.136326 -54.049477 128.863857
O 126.143420 80.451807 146.370174
O 52.913283 -11.556608 29.688168
O 79.015158 -103.464237 107.490199
O 29.908738 -1.681318 -27.926669
O 16.083747 -42.935090 -145.041950
O 11.759564 142.118788 -115.664267
O -34.468781 -101.555296 136.865379
O -0.464584 -67.466066 -141.456859
O 128.594325 111.297521 43.769298
O 131.909434 -40.648032 -71.049802
O -128.705788 -79.743535 27.185110
O 131.098285 36.182695 -16.157779
O -97.546869 114.346182 76.617863
O -42.290503 -128.859731 89.018874
O -82.826616 75.148647 139.346384
O -103.706317 22.972160 -50.548850
O -119.844986 -122.941370 -132.957195
O 110.508070 88.620123 143.876269
O -18.371405 -39.589922 132.879313
O 45.538985 -3.647506 -131.134944
O 148.829261 -107.212667 47.766300
O 45.979025 -93.260010 9.743261
O -13.047197 106.144862 138.872937
O 101.353015 44.902613 47.949354
O -106.982240 124.935261 -106.403813
O -78.341345 -51.030999 52.467304
O 133.547347 131.417879 -72.898552
O -124.934872 -117.856313 -146.522096
O 2.230952 98.887123 49.740522
O 7.597342 131.039647 67.312821
O -59.795807 -117.272505 40.562221
O 68.890624 60.502487 -105.605855
O -121.205827 -126.790972 -120.505059
O -3.470860 5.416602 -69.220743
O -121.940977 94.531233 113.926639
O 147.958122 -80.117892 -132.142930
O 107.198989 -132.393776 69.499636
O 14.130328 68.626207 37.602209
O 132.995438 -61.987985 116.325279
O 0.744122 58.774860 -77.935594
O 58.977909 45.606451 98.998013
O -77.083481 13.906034 -130.559138
O 15.780002 20.981789 -7.442855
O -0.936072 -137.805078 -103.602242
O 47.370236 -42.341864 -36.310988
O 32.657433 -3.531167 87.026286
O 14.469738 66.542569 149.588368
O -6.333960 27.000838 72.894865
O 94.518992 -135.980236 94.171692
O -4.750229 -108.037664 23.788153
O 115.870076 8.446136 -133.685802
O -144.730606 126.857238 61.353590
O -114.117474 96.598946 20.435750
O 0.666719 58.887030 -86.418081
O -136.918332 -63.303859 31.063485
O 104.602856 -88.253974 -24.669976
O -147.505847 -109.261378 127.838385
O -131.931831 8.019148 40.040762
O 27.260541 -130.532014 131.467527
O 135.744241 -100.232119 -113.061404
O -64.114169 5.102361 -53.995268
O 69.345033 -147.460530 -5.240935
O -93.857906 -58.566697 -50.425906
O -15.231607 -82.742898 -7.777507
O -2.790870 100.096528 -142.808471
O -26.978157 48.503111 40.900710
O -48.593279 9.771996 -63.050810
O -1.928972 -41.461254 -18.985605
O 128.751353 124.933596 108.572985
O -133.238491 -42.697786 93.202758
O -41.260196 -0.395503 47.406847
O 38.200604 41.427987 28.615302
O -61.020151 17.834769 120.450909
O -131.947414 25.764245 29.641557
O -39.559336 -75.230443 -84.364050
O 66.827104 30.173303 -59.987738
O 37.032849 -108.390045 -118.820594
O -65.430619 -115.016091 6.788706
O 145.276711 -117.712932 -16.036765
O -13.896740 -127.728510 -10.449461
O 115.540499 -102.563590 -80.519251
O 110.230567 3.916852 5.814694
O 112.061331 -81.068463 102.962915
O 125.208176 20.548476 60.219830
H -117.183768 138.198177 117.073393
H 131.737101 64.075776 104.374503
H 22.771503 121.833829 -13.773497
H 103.016661 141.848003 75.282075
H -53.448809 14.936209 -5.823270
H 104.820344 144.768496 2.381572
H 114.759827 103.856884 -130.133329
H -25.699953 72.316832 -25.613429
H 147.405872 -76.900406 149.350052
H -18.506421 8.200248 -84.090732
H -41.483316 -70.587776 -120.987799
H -44.985200 -13.831120 15.359310
H 73.699750 -93.131483 85.910039
H 124.475409 124.929998 -100.829870
H 41.292724 63.731214 5.743510
H -37.778764 -53.161568 128.863857
H 126.500982 81.339716 146.370174
H 53.270845 -10.668699 29.688168
H 79.372720 -102.576328 107.490199
H 30.266300 -0.793410 -27.926669
H 16.441309 -42.047181 -145.041950
H 12.117126 143.006697 -115.664267
H -34.111219 -100.667387 136.865379
H -0.107022 -66.578158 -141.456859
H 128.951887 112.185429 43.769298
H 132.266996 -39.760124 -71.049802
H -128.348226 -78.855626 27.185110
H 131.455847 37.070604 -16.157779
H -97.189307 115.234090 76.617863
H -41.932941 -127.971822 89.018874
H -82.469054 76.036555 139.346384
H -103.348755 23.860068 -50.548850
H -119.487424 -122.053462 -132.957195
H 110.865632 89.508031 143.876269
H -18.013843 -38.702014 132.879313
H 45.896547 -2.759598 -131.134944
H 149.186823 -106.324759 47.766300
H 46.336587 -92.372101 9.743261
H -12.689635 107.032770 138.872937
H 101.710577 45.790521 47.949354
H -106.624678 125.823170 -106.403813
H -77.983783 -50.143091 52.467304
H 133.904909 132.305788 -72.898552
H -124.577310 -116.968405 -146.522096
H 2.588514 99.775031 49.740522
H 7.954904 131.927556 67.312821
H -59.438245 -116.384597 40.562221
H 69.248186 61.390395 -105.605855
H -120.848265 -125.903063 -120.505059
H -3.113298 6.304511 -69.220743
H -121.583415 95.419142 113.926639
H 148.315684 -79.229984 -132.142930
H 107.556551 -131.505868 69.499636
H 14.487890 69.514115 37.602209
H 133.353000 -61.100076 116.325279
H 1.101684 59.662768 -77.935594
H 59.335471 46.494359 98.998013
H -76.725919 14.793943 -130.559138
H 16.137564 21.869698 -7.442855
H -0.578510 -136.917170 -103.602242
H 47.727798 -41.453956 -36.310988
H 33.014995 -2.643259 87.026286
H 14.827300 67.430477 149.588368
H -5.976398 27.888746 72.894865
H 94.876554 -135.092328 94.171692
H -4.392667 -107.149756 23.788153
H 116.227638 9.334044 -133.685802
H -144.373044 127.745146 61.353590
H -113.759912 97.486855 20.435750
H 1.024281 59.774938 -86.418081
H -136.560770 -62.415950 31.063485
H 104.960418 -87.366066 -24.669976
H -147.148285 -108.373470 127.838385
H -131.574269 8.907056 40.040762
H 27.618103 -129.644105 131.467527
H 136.101803 -99.344210 -113.061404
H -63.756607 5.990269 -53.995268
H 69.702595 -146.572622 -5.240935
H -93.500344 -57.678789 -50.425906
H -14.874045 -81.854989 -7.777507
H -2.433308 100.984436 -142.808471
H -26.620595 49.391019 40.900710
H -48.235717 10.659904 -63.050810
H -1.571410 -40.573346 -18.985605
H 129.108915 125.821504 108.572985
H -132.880929 -41.809878 93.202758
H -40.902634 0.492405 47.406847
H 38.558166 42.315896 28.615302
H -60.662589 18.722678 120.450909
H -131.589852 26.652154 29.641557
H -39.201774 -74.342534 -84.364050
H 67.184666 31.061212 -59.987738
H 37.390411 -107.502137 -118.820594
H -65.073057 -114.128183 6.788706
H 145.634273 -116.825023 -16.036765
H -13.539178 -126.840601 -10.449461
H 115.898061 -101.675682 -80.519251
H 110.588129 4.804761 5.814694
H 112.418893 -80.180555 102.962915
H 125.565738 21.436384 60.219830
H -118.498530 137.310269 117.073393
H 130.422339 63.187868 104.374503
H 21.456741 120.945920 -13.773497
H 101.701899 140.960095 75.282075
H -54.763571 14.048301 -5.823270
H 103.505582 143.880587 2.381572
H 113.445065 102.968976 -130.133329
H -27.014715 71.428924 -25.613429
H 146.091110 -77.788314 149.350052
H -19.821183 7.312339 -84.090732
H -42.798078 -71.475684 -120.987799
H -46.299962 -14.719029 15.359310
H 72.384988 -94.019391 85.910039
H 123.160647 124.042090 -100.829870
H 39.977962 62.843306 5.743510
H -39.093526 -54.049477 128.863857
H 125.186220 80.451807 146.370174
H 51.956083 -11.556608 29.688168
H 78.057958 -103.464237 107.490199
H 28.951538 -1.681318 -27.926669
H 15.126547 -42.935090 -145.041950
H 10.802364 142.118788 -115.664267
H -35.425981 -101.555296 136.865379
H -1.421784 -67.466066 -141.456859
H 127.637125 111.297521 43.769298
H 130.952234 -40.648032 -71.049802
H -129.662988 -79.743535 27.185110
H 130.141085 36.182695 -16.157779
H -98.504069 114.346182 76.617863
H -43.247703 -128.859731 89.018874
H -83.783816 75.148647 139.346384
H -104.663517 22.972160 -50.548850
H -120.802186 -122.941370 -132.957195
H 109.550870 88.620123 143.876269
H -19.328605 -39.589922 132.879313
H 44.581785 -3.647506 -131.134944
H 147.872061 -107.212667 47.766300
H 45.021825 -93.260010 9.743261
H -14.004397 106.144862 138.872937
H 100.395815 44.902613 47.949354
H -107.939440 124.935261 -106.403813
H -79.298545 -51.030999 52.467304
H 132.590147 131.417879 -72.898552
H -125.892072 -117.856313 -146.522096
H 1.273752 98.887123 49.740522
H 6.640142 131.039647 67.312821
H -60.753007 -117.272505 40.562221
H 67.933424 60.502487 -105.605855
H -122.163027 -126.790972 -120.505059
H -4.428060 5.416602 -69.220743
H -122.898177 94.531233 113.926639
H 147.000922 -80.117892 -132.142930
H 106.241789 -132.393776 69.499636
H 13.173128 68.626207 37.602209
H 132.038238 -61.987985 116.325279
H -0.213078 58.774860 -77.935594
H 58.020709 45.606451 98.998013
H -78.040681 13.906034 -130.559138
H 14.822802 20.981789 -7.442855
H -1.893272 -137.805078 -103.602242
H 46.413036 -42.341864 -36.310988
H 31.700233 -3.531167 87.026286
H 13.512538 66.542569 149.588368
H -7.291160 27.000838 72.894865
H 93.561792 -135.980236 94.171692
H -5.707429 -108.037664 23.788153
H 114.912876 8.446136 -133.685802
H -145.687806 126.857238 61.353590
H -115.074674 96.598946 20.435750
H -0.290481 58.887030 -86.418081
H -137.875532 -63.303859 31.063485
H 103.645656 -88.253974 -24.669976
H -148.463047 -109.261378 127.838385
H -132.889031 8.019148 40.040762
H 26.303341 -130.532014 131.467527
H 134.787041 -100.232119 -113.061404
H -65.071369 5.102361 -53.995268
H 68.387833 -147.460530 -5.240935
H -94.815106 -58.566697 -50.425906
H -16.188807 -82.742898 -7.777507
H -3.748070 100.096528 -142.808471
H -27.935357 48.503111 40.900710
H -49.550479 9.771996 -63.050810
H -2.886172 -41.461254 -18.985605
H 127.794153 124.933596 108.572985
H -134.195691 -42.697786 93.202758
H -42.217396 -0.395503 47.406847
H 37.243404 41.427987 28.615302
H -61.977351 17.834769 120.450909
H -132.904614 25.764245 29.641557
H -40.516536 -75.230443 -84.364050
H 65.869904 30.173303 -59.987738
H 36.075649 -108.390045 -118.820594
H -66.387819 -115.016091 6.788706
H 144.319511 -117.712932 -16.036765
H -14.853940 -127.728510 -10.449461
H 114.583299 -102.563590 -80.519251
H 109.273367 3.916852 5.814694
H 111.104131 -81.068463 102.962915
H 124.250976 20.548476 60.219830
